!!>>>>>>>>>>>>>>>>>>>>>>>>>>>>>>>>>>>>>>>>>>>>>>>>>>>>>>>>>>>>>>>>>>>>>>
!! NEMO/TOP:   ECE4 namelist
!!>>>>>>>>>>>>>>>>>>>>>>>>>>>>>>>>>>>>>>>>>>>>>>>>>>>>>>>>>>>>>>>>>>>>>>
!!               - tracer run information                (namtrc_run)
!!               - tracer definition                     (namtrc    )
!!               - tracer data initialisation            (namtrc_dta)
!!               - tracer advection                      (namtrc_adv)
!!               - tracer lateral diffusion              (namtrc_ldf)
!!               - tracer vertical physics               (namtrc_zdf)
!!               - tracer newtonian damping              (namtrc_dmp)
!!               - dynamical tracer trends               (namtrc_trd)
!>>>>>>>>>>>>>>>>>>>>>>>>>>>>>>>>>>>>>>>>>>>>>>>>>>>>>>>>>>>>>>>>>>>>>>>
!-----------------------------------------------------------------------
&namtrc_run      !   run information
!-----------------------------------------------------------------------
   ln_top_euler  = .true.    !  use Euler time-stepping for TOP
   ln_rsttr      = .false.   !  start from a restart file (T) or not (F)
   nn_rsttr      =   0       !  restart control = 0 initial time step is not compared to the restart file value
                             !                  = 1 do not use the value in the restart file
                             !                  = 2 calendar parameters read in the restart file
   cn_trcrst_in  = "restart_trc"   !  suffix of pass. sn_tracer restart name (input)
   cn_trcrst_indir = "."           !  directory from which to read input passive tracer restarts
   cn_trcrst_out = "restart_trc"   !  suffix of pass. sn_tracer restart name (output)
   cn_trcrst_outdir = "."          !  directory to which to write output passive tracer restarts
/
!-----------------------------------------------------------------------
&namtrc          !   tracers definition
!-----------------------------------------------------------------------
   jp_bgc        =  24          !  Number of passive tracers of the BGC model
   !
   ln_pisces     =  .false.     !  Run PISCES BGC model
   ln_my_trc     =  .false.     !  Run MY_TRC BGC model
   ln_age        =  .false.     !  Run the sea water age tracer
   ln_cfc11      =  .false.     !  Run the CFC11 passive tracer
   ln_cfc12      =  .false.     !  Run the CFC12 passive tracer
   ln_sf6        =  .false.     !  Run the SF6 passive tracer
   ln_c14        =  .false.     !  Run the Radiocarbon passive tracer
   !
   ln_trcdta     =  .true.   !  Initialisation from data input file (T) or not (F)
   ln_trcdmp     =  .false.  !  add a damping termn (T) or not (F)
   ln_trcdmp_clo =  .false.  !  damping term (T) or not (F) on closed seas
   ln_trcbc      =  .true.   !  Surface, Lateral or Open Boundaries conditions
   ln_trcais     =  .false.  !  Antarctic Ice Sheet nutrient supply
   !
   jp_dia3d      = 0         ! Number of 3D diagnostic variables
   jp_dia2d      = 0         ! Number of 2D diagnostic variables
   !_____________!___________!___________________________________________!_____________!_________!
   !             !    name   !           title of the field              !   units     ! init    ! sbc    ! cbc    !  obc    !  ais
   sn_tracer(1)   = 'DIC     ' , 'Dissolved inorganic Concentration      ',  'mol-C/L' , .true.  , .false., .true. , .false. , .false.
   sn_tracer(2)   = 'Alkalini' , 'Total Alkalinity Concentration         ',  'eq/L '   , .true.  , .false., .true. , .false. , .false.
   sn_tracer(3)   = 'O2      ' , 'Dissolved Oxygen Concentration         ',  'mol-C/L' , .true.  , .false., .false., .false. , .false.
   sn_tracer(4)   = 'CaCO3   ' , 'Calcite Concentration                  ',  'mol-C/L' , .false. , .false., .false., .false. , .false.
   sn_tracer(5)   = 'PO4     ' , 'Phosphate Concentration                ',  'mol-C/L' , .true.  , .true. , .true. , .false. , .false.
   sn_tracer(6)   = 'POC     ' , 'Small organic carbon Concentration     ',  'mol-C/L' , .false. , .false., .false., .false. , .false.
   sn_tracer(7)   = 'Si      ' , 'Silicate Concentration                 ',  'mol-C/L' , .true.  , .true. , .true. , .false. , .false.
   sn_tracer(8)   = 'PHY     ' , 'Nanophytoplankton Concentration        ',  'mol-C/L' , .false. , .false., .false., .false. , .false.
   sn_tracer(9)   = 'ZOO     ' , 'Microzooplankton Concentration         ',  'mol-C/L' , .false. , .false., .false., .false. , .false.
   sn_tracer(10)  = 'DOC     ' , 'Dissolved organic Concentration        ',  'mol-C/L' , .true.  , .false., .true. , .false. , .false.
   sn_tracer(11)  = 'PHY2    ' , 'Diatoms Concentration                  ',  'mol-C/L' , .false. , .false., .false., .false. , .false.
   sn_tracer(12)  = 'ZOO2    ' , 'Mesozooplankton Concentration          ',  'mol-C/L' , .false. , .false., .false., .false. , .false.
   sn_tracer(13)  = 'DSi     ' , 'Diatoms Silicate Concentration         ',  'mol-C/L' , .false. , .false., .false., .false. , .false.
   sn_tracer(14)  = 'Fer     ' , 'Dissolved Iron Concentration           ',  'mol-C/L' , .true.  , .true. , .true. , .false. , .true.
   sn_tracer(15)  = 'BFe     ' , 'Big iron particles Concentration       ',  'mol-C/L' , .false. , .false., .false., .false. , .false.
   sn_tracer(16)  = 'GOC     ' , 'Big organic carbon Concentration       ',  'mol-C/L' , .false. , .false., .false., .false. , .false.
   sn_tracer(17)  = 'SFe     ' , 'Small iron particles Concentration     ',  'mol-C/L' , .false. , .false., .false., .false. , .false.
   sn_tracer(18)  = 'DFe     ' , 'Diatoms iron  Concentration            ',  'mol-C/L' , .false. , .false., .false., .false. , .false.
   sn_tracer(19)  = 'GSi     ' , 'Sinking biogenic Silicate Concentration',  'mol-C/L' , .false. , .false., .false., .false. , .false.
   sn_tracer(20)  = 'NFe     ' , 'Nano iron Concentration                ',  'mol-C/L' , .false. , .false., .false., .false. , .false.
   sn_tracer(21)  = 'NCHL    ' , 'Nano chlorophyl Concentration          ',  'mol-C/L' , .false. , .false., .false., .false. , .false.
   sn_tracer(22)  = 'DCHL    ' , 'Diatoms chlorophyl Concentration       ',  'mol-C/L' , .false. , .false., .false., .false. , .false.
   sn_tracer(23)  = 'NO3     ' , 'Nitrates Concentration                 ',  'mol-C/L' , .true.  , .true. , .true. , .false. , .false.
   sn_tracer(24)  = 'NH4     ' , 'Ammonium Concentration                 ',  'mol-C/L' , .false. , .false., .false., .false. , .false.
/
!-----------------------------------------------------------------------
&namage          !   AGE
!-----------------------------------------------------------------------
   rn_age_depth      = 10            ! depth over which age tracer reset to zero
   rn_age_kill_rate  = -0.000138888  !  = -1/7200 recip of relaxation timescale (s) for  age tracer shallower than age_depth
/
!-----------------------------------------------------------------------
&namtrc_dta      !    Initialisation from data input file
!-----------------------------------------------------------------------
   cn_dir        =  './'     !  root directory for the location of the data files
   !             !  file name  ! frequency (hours) ! variable  ! time interp. !  clim  ! 'yearly'/ ! weights  ! rotation ! land/sea mask !
   !             !             !  (if <0  months)  !   name    !   (logical)  !  (T/F) ! 'monthly' ! filename ! pairing  ! filename      !
   sn_trcdta(1)  = 'data_DIC_nomask.nc',        -12        ,  'PiDIC'  ,    .false.   , .true. , 'yearly'  , 'weights_3D_r360x180_bilin.nc'       , ''   , ''
   sn_trcdta(2)  = 'data_ALK_nomask.nc',        -12        ,  'TALK'   ,    .false.   , .true. , 'yearly'  , 'weights_3D_r360x180_bilin.nc'       , ''   , ''
   sn_trcdta(3)  = 'data_OXY_nomask.nc',        -1         ,  'O2'     ,    .true.    , .true. , 'yearly'  , 'weights_3D_r360x180_bilin.nc'       , ''   , ''
   sn_trcdta(5)  = 'data_PO4_nomask.nc',        -1         ,  'PO4'    ,    .true.    , .true. , 'yearly'  , 'weights_3D_r360x180_bilin.nc'       , ''   , ''
   sn_trcdta(7)  = 'data_SIL_nomask.nc',        -1         ,  'Si'     ,    .true.    , .true. , 'yearly'  , 'weights_3D_r360x180_bilin.nc'       , ''   , ''
   sn_trcdta(10) = 'data_DOC_nomask.nc',        -1         ,  'DOC'    ,    .true.    , .true. , 'yearly'  , 'weights_3D_r360x180_bilin.nc'       , ''   , ''
   sn_trcdta(14) = 'data_FER_nomask.nc',        -1         ,  'Fer'    ,    .true.    , .true. , 'yearly'  , 'weights_3D_r360x180_bilin.nc'       , ''   , ''
   sn_trcdta(23) = 'data_NO3_nomask.nc',        -1         ,  'NO3'    ,    .true.    , .true. , 'yearly'  , 'weights_3D_r360x180_bilin.nc'       , ''   , ''
   !
   rn_trfac(1)   =   1.028e-06   !  multiplicative factor
   rn_trfac(2)   =   1.028e-06   !  -      -      -     -
   rn_trfac(3)   =  44.6e-06     !  -      -      -     -
   rn_trfac(5)   = 117.0e-06     !  -      -      -     -
   rn_trfac(7)   =   1.0e-06     !  -      -      -     -
   rn_trfac(10)  =   1.0e-06     !  -      -      -     -
   rn_trfac(14)  =   1.0e-06     !  -      -      -     -
   rn_trfac(23)  =   7.3125e-06  !  -      -      -     -
/
!-----------------------------------------------------------------------
&namtrc_adv      !   advection scheme for passive tracer                (default: NO selection)
!-----------------------------------------------------------------------
   ln_trcadv_OFF =  .false.  !  No passive tracer advection
   ln_trcadv_cen =  .false.  !  2nd order centered scheme
      nn_cen_h   =  4               !  =2/4, horizontal 2nd order CEN / 4th order CEN
      nn_cen_v   =  4               !  =2/4, vertical   2nd order CEN / 4th order COMPACT
   ln_trcadv_fct =  .false.  !  FCT scheme
      nn_fct_h   =  2               !  =2/4, horizontal 2nd / 4th order
      nn_fct_v   =  2               !  =2/4, vertical   2nd / COMPACT 4th order
   ln_trcadv_mus =  .true.   !  MUSCL scheme
      ln_mus_ups =  .false.         !  use upstream scheme near river mouths
   ln_trcadv_ubs =  .false.  !  UBS scheme
      nn_ubs_v   =  2               !  =2  , vertical 2nd order FCT
   ln_trcadv_qck =  .false.  !  QUICKEST scheme
/
!-----------------------------------------------------------------------
&namtrc_ldf      !   lateral diffusion scheme for passive tracer        (default: NO selection)
!-----------------------------------------------------------------------
!                            !  Type of the operator:
   ln_trcldf_OFF   =  .false.    !  No explicit diffusion
   ln_trcldf_tra   =  .true.     !  use active tracer setting
   !                         !  Coefficient (defined with namtra_ldf coefficient)
   rn_ldf_multi    = 1.          !  multiplier of aht for TRC mixing coefficient
   rn_fact_lap     = 1.          !  Equatorial enhanced zonal eddy diffusivity (lap only)
/
!-----------------------------------------------------------------------
&namtrc_rad      !  treatment of negative concentrations
!-----------------------------------------------------------------------
   ln_trcrad     =  .true.   !  artificially correct negative concentrations (T) or not (F)
/
!-----------------------------------------------------------------------
&namtrc_snk      !  Sedimentation of particles
!-----------------------------------------------------------------------
   nitermax      =  2   !  number of iterations for sedimentation
/
!-----------------------------------------------------------------------
&namtrc_dcy      !  Diurnal cycle
!-----------------------------------------------------------------------
   ln_trcdc2dm   =  .false.   !  Diurnal cycle for TOP
/
!-----------------------------------------------------------------------
&namtrc_opt      !  light availability in the water column
!-----------------------------------------------------------------------
!                !  file name       ! frequency (hours) ! variable  ! time interp. !  clim  ! 'yearly'/ ! weights  ! rotation ! land/sea mask !
!                !                  !  (if <0  months)  !   name    !   (logical)  !  (T/F) ! 'monthly' ! filename ! pairing  ! filename      !
   sn_par        = 'par.orca'       ,     24            , 'fr_par'  ,  .true.      , .true. , 'yearly'  , ''       , ''       , ''
   cn_dir        = './'        ! root directory for the location of the dynamical files
   ln_varpar     =  .true.     ! Read PAR from file
   parlux        =  0.43       ! Fraction of shortwave as PAR
   light_loc     = 'center'    ! Light location in the water cell ('center', 'integral')
/
!-----------------------------------------------------------------------
&namtrc_dmp      !   passive tracer newtonian damping                   (ln_trcdmp=T)
!-----------------------------------------------------------------------
   nn_zdmp_tr    =    1      !  vertical   shape =0    damping throughout the water column
                             !                   =1 no damping in the mixing layer (kz  criteria)
                             !                   =2 no damping in the mixed  layer (rho crieria)
   cn_resto_tr   = 'resto_tr.nc'    !  create a damping.coeff NetCDF file (=1) or not (=0)
/
!-----------------------------------------------------------------------
&namtrc_ice      !    Representation of sea ice growth & melt effects
!-----------------------------------------------------------------------
   nn_ice_tr     =  -1       !  tracer concentration in sea ice
                             !    =-1 (no vvl: identical cc in ice and ocean / vvl: cc_ice = 0)
                             !    = 0 (no vvl: cc_ice = zero / vvl: cc_ice = )
                             !    = 1 prescribed to a namelist value (implemented in pisces only)
/
!-----------------------------------------------------------------------
&namtrc_trd      !   diagnostics on tracer trends                       ('key_trdtrc')
!                          or mixed-layer trends                        ('key_trdmld_trc')
!----------------------------------------------------------------------
   nn_trd_trc    =  5475     !  time step frequency and tracers trends
   nn_ctls_trc   =   0       !  control surface type in mixed-layer trends (0,1 or n<jpk)
   rn_ucf_trc    =   1       !  unit conversion factor (=1 -> /seconds ; =86400. -> /day)
   ln_trdmld_trc_restart = .false. !  restart for ML diagnostics
   ln_trdmld_trc_instant = .true.  !  flag to diagnose trends of instantantaneous or mean ML T/S
   ln_trdtrc( 1) = .true.
   ln_trdtrc( 2) = .true.
   ln_trdtrc(23) = .true.
/
!----------------------------------------------------------------------
&namtrc_bc       !   data for boundary conditions
!-----------------------------------------------------------------------
   cn_dir_sbc    =  './'     !  root directory for the location of SURFACE data files
   cn_dir_cbc    =  './'     !  root directory for the location of COASTAL data files
   cn_dir_obc    =  './'     !  root directory for the location of OPEN data files
   ln_rnf_ctl    = .false.   !  Remove runoff dilution on tracers with absent river load
!                !  file name        ! frequency (hours) ! variable      ! time interp. !  clim  ! 'yearly'/ ! weights  ! rotation ! land/sea mask !
!                !                   !  (if <0  months)  !   name        !   (logical)  !  (T/F) ! 'monthly' ! filename ! pairing  ! filename      !
   sn_trcsbc(5)  = 'dust.orca.new'   ,       -1          , 'dustpo4'     ,  .true.      , .true. , 'yearly'  , ''       , ''    , ''
   sn_trcsbc(7)  = 'dust.orca.new'   ,       -1          , 'dustsi'      ,  .true.      , .true. , 'yearly'  , ''       , ''    , ''
   sn_trcsbc(14) = 'dust.orca.new'   ,       -1          , 'dustfer'     ,  .true.      , .true. , 'yearly'  , ''       , ''    , ''
   sn_trcsbc(23) = 'ndeposition.orca',      -12          , 'ndep'        ,  .false.     , .true. , 'yearly'  , ''       , ''    , ''
   rn_trsfac(5)  = 7.9258065e-02    !  (  0.021 / 31. * 117 )
   rn_trsfac(7)  = 3.1316726e-01    !  ( 8.8   / 28.1 )
   rn_trsfac(14) = 6.2667860e-04    !  (  0.035 / 55.85 )
   rn_trsfac(23) = 5.2232143e-01    !  ( From kgN m-2 s-1 to molC l-1 ====> zfact = 7.3125/14 )
   rn_sbc_time   = 1.               !  Time scaling factor for SBC and CBC data (seconds in a day)
   !
   sn_trccbc(1)  = 'river.orca'      ,    120            , 'riverdic'    ,  .true.      , .true. , 'yearly'  , ''       , ''    , ''
   sn_trccbc(2)  = 'river.orca'      ,    120            , 'riverdic'    ,  .true.      , .true. , 'yearly'  , ''       , ''    , ''
   sn_trccbc(5)  = 'river.orca'      ,    120            , 'riverdip'    ,  .true.      , .true. , 'yearly'  , ''       , ''    , ''
   sn_trccbc(7)  = 'river.orca'      ,    120            , 'riverdsi'    ,  .true.      , .true. , 'yearly'  , ''       , ''    , ''
   sn_trccbc(10) = 'river.orca'      ,    120            , 'riverdoc'    ,  .true.      , .true. , 'yearly'  , ''       , ''    , ''
   sn_trccbc(14) = 'river.orca'      ,    120            , 'riverdic'    ,  .true.      , .true. , 'yearly'  , ''       , ''    , ''
   sn_trccbc(23) = 'river.orca'      ,    120            , 'riverdin'    ,  .true.      , .true. , 'yearly'  , ''       , ''    , ''
   rn_trcfac(1)  = 8.333333e+01      !  ( data in Mg/m2/yr : 1e3/12/ryyss)
   rn_trcfac(2)  = 8.333333e+01      !  ( 1e3 /12 )
   rn_trcfac(5)  = 3.774193e+03   !  ( 1e3 / 31. * 117 )
   rn_trcfac(7)  = 3.558719e+01   !  ( 1e3 / 28.1 )
   rn_trcfac(10) = 8.333333e+01   !  ( 1e3 / 12
   rn_trcfac(14) = 4.166667e-03   !  ( 1e3 / 12 * 5e-5 )
   rn_trcfac(23) = 5.223214e+02   !  (  1e3 / 14 * 7.3125 )
   rn_cbc_time   = 3.1536e+7      !  Time scaling factor for CBC data (seconds in a year)
/
!----------------------------------------------------------------------
&namtrc_bdy      !   Setup of tracer boundary conditions
!-----------------------------------------------------------------------
   cn_trc_dflt   = 'neumann' !  OBC applied by default to all tracers
   cn_trc        = 'none'    !  Boundary conditions used for tracers with data files (selected in namtrc)

   nn_trcdmp_bdy = 0         !  Use damping timescales defined in nambdy of namelist
                             !  = 0 NO damping of tracers at open boudaries
                             !  = 1 Only for tracers forced with external data
                             !  = 2 Damping applied to all tracers
/
!-----------------------------------------------------------------------
&namtrc_ais      !  Representation of Antarctic Ice Sheet tracers supply
!-----------------------------------------------------------------------
   nn_ais_tr     =  1        !  tracer concentration in iceberg and ice shelf
                             !    = 0 (null concentrations)
                             !    = 1 prescribed concentrations
   rn_icbdep     =  120.     ! Mean underwater depth of iceberg (m)
/
